-------------------------------------------------------
          Amber 14 SANDER                              2014
          -------------------------------------------------------

  [-O]verwriting output

File Assignments:

 Here is the input file:

NPT equilibration 20 ps
 &cntrl
  imin = 0, irest = 1, ntx = 5,
  ntb = 2, cut = 9.0, iamoeba = 1,
  ntf = 1, ntc = 1,
  ntt = 4, temp0 = 298.15, tautp = 0.1,
  ntp = 1, pres0 = 1.013, taup = 1.0,
  nstlim = 20000, dt = 0.001,
  ntpr = 100, ntwx = 100, ntwr = 100,
  ioutfm = 1, iwrap = 1,
 /
 &ewald
  ew_coeff = 0.45, order = 5,
 /
 &amoeba
  ee_dsum_cut = 7.0, dipole_scf_tol = 0.01, amoeba_verbose = 0,
  dipole_scf_iter_max = 50, sor_coefficient = 0.7,
  do_vdw_longrange = 1, do_vdw_taper = 1,
 /

--------------------------------------------------------------------------------
   1.  RESOURCE   USE:
--------------------------------------------------------------------------------

 getting new box info from bottom of inpcrd

 NATOM  =    1704 NTYPES =       1 NBONH =       0 MBONA  =       0
 NTHETH =       0 MTHETA =       0 NPHIH =       0 MPHIA  =       0
 NHPARM =       0 NPARM  =       0 NNB   =    1854 NRES   =     562
 NBONA  =       0 NTHETA =       0 NPHIA =       0 NUMBND =       0
 NUMANG =       0 NPTRA  =       0 NATYP =       1 NPHB   =       0
 IFBOX  =       1 NMXRS  =       0 IFCAP =       0 NEXTRA =       0
 NCOPY  =       0

     BOX TYPE: RECTILINEAR

--------------------------------------------------------------------------------
   2.  CONTROL  DATA  FOR  THE  RUN
--------------------------------------------------------------------------------

GAG peptide AMOEBA ff

General flags:
     imin    =       0, nmropt  =       0

Nature and format of input:
     ntx     =       5, irest   =       1, ntrx    =       1

Nature and format of output:
     ntxo    =       1, ntpr    =     100, ntrx    =       1, ntwr    =     100
     iwrap   =       1, ntwx    =     100, ntwv    =       0, ntwe    =       0
     ioutfm  =       1, ntwprt  =       0, idecomp =       0, rbornstat=      0

Potential function:
     ntf     =       1, ntb     =       2, igb     =       0, nsnb    =      25
     ipol    =       0, gbsa    =       0, iesp    =       0
     cut     =   9.00000
     scnb    =   2.00000, scee    =   1.20000

Frozen or restrained atoms:
     ibelly  =       0, ntr     =       0

Molecular dynamics:
     nstlim  =     20000, nscm    =      1000, nrespa  =         1
     t       =   0.00000, dt      =   0.00100, vlimit  =  20.00000

Pressure regulation:
     ntp     =       1
     pres0   =   1.01300, comp    =  44.60000, taup    =   1.00000

Ewald parameters:
     verbose =       0, ew_type =       0, nbflag  =       1, use_pme =       1
     vdwmeth =       1, eedmeth =       1, netfrc  =       1
     Box X =   26.587   Box Y =   26.920   Box Z =   26.665
     Alpha =   90.000   Beta  =   90.000   Gamma =   90.000
     NFFT1 =   28       NFFT2 =   27       NFFT3 =   27
     Cutoff=    9.000   Tol   =0.113E-08
     Ewald Coefficient =  0.45000
     Interpolation order =    5

--------------------------------------------------------------------------------
   3.  ATOMIC COORDINATES AND VELOCITIES
--------------------------------------------------------------------------------

GAG peptide AMOEBA ff
 begin time read from input coords =    18.200 ps

--------------------------------------------------------------------------------
   4.  RESULTS
 NSTEP =      100   TIME(PS) =      18.300  TEMP(K) =   305.84  PRESS =   -18.5
 Etot   =     -3356.3672  EKtot   =      1552.5311  EPtot      =     -4908.8984
 BOND   =       422.1607  ANGLE   =       214.0165  DIHED      =         6.6603
 1-4 NB =        15.3879  1-4 EEL =         0.0000  VDWAALS    =      2217.6275
 EELEC  =     -5567.9522  EHBOND  =         0.0000  RESTRAINT  =         0.0000
 EKCMT  =      1552.5311  VIRIAL  =      3120.4140  VOLUME     =     18994.1795
 EPOLZ  =     -2216.7990
 Dipole convergence: rms =  0.887E-02 iters =   4.00
                                                    Density    =         0.8982
 ------------------------------------------------------------------------------

      A V E R A G E S   O V E R   20000 S T E P S

 NSTEP =    20000   TIME(PS) =      38.200  TEMP(K) =   298.08  PRESS =  -139.7
 Etot   =     -3527.2420  EKtot   =      1513.1268  EPtot      =     -5040.3688
 BOND   =       443.0812  ANGLE   =       229.3830  DIHED      =         4.1495
 1-4 NB =        14.1125  1-4 EEL =         0.0000  VDWAALS    =      2311.0049
 EELEC  =     -5730.2640  EHBOND  =         0.0000  RESTRAINT  =         0.0000
 EKCMT  =      1513.1268  VIRIAL  =      3135.7349  VOLUME     =     17203.6620
 EPOLZ  =     -2311.8360
 Dipole convergence: rms =  0.910E-02 iters =   4.00
                                                    Density    =         0.9927
 ------------------------------------------------------------------------------

      R M S  F L U C T U A T I O N S

 NSTEP =    20000   TIME(PS) =      38.200  TEMP(K) =     6.08  PRESS =   755.1
 Etot   =        77.2320  EKtot   =        30.8585  EPtot      =        67.4891
 BOND   =        19.0253  ANGLE   =        12.9954  DIHED      =         2.1422
 1-4 NB =         2.1983  1-4 EEL =         0.0000  VDWAALS    =        75.7038
 EELEC  =        87.1867  EHBOND  =         0.0000  RESTRAINT  =         0.0000
 EKCMT  =        30.8585  VIRIAL  =       580.1817  VOLUME     =       570.3414
 EPOLZ  =        51.1691
 Dipole convergence: rms =  0.226E-03 iters =   0.03
                                                    Density    =         0.0313
 ------------------------------------------------------------------------------
