-------------------------------------------------------
          Amber 14 SANDER                              2014
          -------------------------------------------------------

  [-O]verwriting output

File Assignments:

 Here is the input file:

NPT production 250 ps
 &cntrl
  imin = 0, irest = 1, ntx = 5,
  ntb = 2, cut = 9.0, iamoeba = 1,
  ntf = 1, ntc = 1,
  ntt = 4, temp0 = 298.15, tautp = 0.1,
  ntp = 1, pres0 = 1.013, taup = 1.0,
  nstlim = 250000, dt = 0.001,
  ntpr = 100, ntwx = 100, ntwr = 10000,
  ioutfm = 1, iwrap = 1,
 /
 &ewald
  ew_coeff = 0.45, order = 5,
 /
 &amoeba
  ee_dsum_cut = 7.0, dipole_scf_tol = 0.01, amoeba_verbose = 0,
  dipole_scf_iter_max = 50, sor_coefficient = 0.7,
  do_vdw_longrange = 1, do_vdw_taper = 1,
 /

--------------------------------------------------------------------------------
   1.  RESOURCE   USE:
--------------------------------------------------------------------------------

 getting new box info from bottom of inpcrd

 NATOM  =    1704 NTYPES =       1 NBONH =       0 MBONA  =       0
 NTHETH =       0 MTHETA =       0 NPHIH =       0 MPHIA  =       0
 NHPARM =       0 NPARM  =       0 NNB   =    1854 NRES   =     562
 NBONA  =       0 NTHETA =       0 NPHIA =       0 NUMBND =       0
 NUMANG =       0 NPTRA  =       0 NATYP =       1 NPHB   =       0
 IFBOX  =       1 NMXRS  =       0 IFCAP =       0 NEXTRA =       0
 NCOPY  =       0

     BOX TYPE: RECTILINEAR

--------------------------------------------------------------------------------
   2.  CONTROL  DATA  FOR  THE  RUN
--------------------------------------------------------------------------------

GAG peptide AMOEBA ff

General flags:
     imin    =       0, nmropt  =       0

Nature and format of input:
     ntx     =       5, irest   =       1, ntrx    =       1

Nature and format of output:
     ntxo    =       1, ntpr    =     100, ntrx    =       1, ntwr    =   10000
     iwrap   =       1, ntwx    =     100, ntwv    =       0, ntwe    =       0
     ioutfm  =       1, ntwprt  =       0, idecomp =       0, rbornstat=      0

Potential function:
     ntf     =       1, ntb     =       2, igb     =       0, nsnb    =      25
     ipol    =       0, gbsa    =       0, iesp    =       0
     cut     =   9.00000
     scnb    =   2.00000, scee    =   1.20000

Frozen or restrained atoms:
     ibelly  =       0, ntr     =       0

Molecular dynamics:
     nstlim  =    250000, nscm    =      1000, nrespa  =         1
     t       =   0.00000, dt      =   0.00100, vlimit  =  20.00000

Pressure regulation:
     ntp     =       1
     pres0   =   1.01300, comp    =  44.60000, taup    =   1.00000

Ewald parameters:
     verbose =       0, ew_type =       0, nbflag  =       1, use_pme =       1
     vdwmeth =       1, eedmeth =       1, netfrc  =       1
     Box X =   25.464   Box Y =   25.782   Box Z =   25.538
     Alpha =   90.000   Beta  =   90.000   Gamma =   90.000
     NFFT1 =   28       NFFT2 =   27       NFFT3 =   27
     Cutoff=    9.000   Tol   =0.113E-08
     Ewald Coefficient =  0.45000
     Interpolation order =    5

--------------------------------------------------------------------------------
   3.  ATOMIC COORDINATES AND VELOCITIES
--------------------------------------------------------------------------------

GAG peptide AMOEBA ff
 begin time read from input coords =    38.200 ps

--------------------------------------------------------------------------------
   4.  RESULTS
 NSTEP =      100   TIME(PS) =      38.300  TEMP(K) =   307.76  PRESS =  1022.7
 Etot   =     -3597.1752  EKtot   =      1562.2790  EPtot      =     -5159.4542
 BOND   =       439.1257  ANGLE   =       239.5489  DIHED      =         2.1781
 1-4 NB =        13.0833  1-4 EEL =         0.0000  VDWAALS    =      2492.0862
 EELEC  =     -5925.0756  EHBOND  =         0.0000  RESTRAINT  =         0.0000
 EKCMT  =      1562.2790  VIRIAL  =      2371.7609  VOLUME     =     16823.9184
 EPOLZ  =     -2420.4009
 Dipole convergence: rms =  0.931E-02 iters =   4.00
                                                    Density    =         1.0140
 ------------------------------------------------------------------------------

      A V E R A G E S   O V E R  250000 S T E P S

 NSTEP =   250000   TIME(PS) =     288.200  TEMP(K) =   298.06  PRESS =     0.7
 Etot   =     -3570.6468  EKtot   =      1513.0379  EPtot      =     -5083.6848
 BOND   =       452.9079  ANGLE   =       233.0881  DIHED      =         4.6249
 1-4 NB =        13.9318  1-4 EEL =         0.0000  VDWAALS    =      2348.9207
 EELEC  =     -5787.8954  EHBOND  =         0.0000  RESTRAINT  =         0.0000
 EKCMT  =      1513.0379  VIRIAL  =      3025.5673  VOLUME     =     16791.6507
 EPOLZ  =     -2349.2627
 Dipole convergence: rms =  0.917E-02 iters =   4.03
                                                    Density    =         1.0160
 ------------------------------------------------------------------------------

      R M S  F L U C T U A T I O N S

 NSTEP =   250000   TIME(PS) =     288.200  TEMP(K) =     5.97  PRESS =   734.1
 Etot   =        56.7818  EKtot   =        30.3178  EPtot      =        47.1674
 BOND   =        16.2613  ANGLE   =        13.4350  DIHED      =         2.2283
 1-4 NB =         2.0997  1-4 EEL =         0.0000  VDWAALS    =        65.8790
 EELEC  =        62.5407  EHBOND  =         0.0000  RESTRAINT  =         0.0000
 EKCMT  =        30.3178  VIRIAL  =       545.1030  VOLUME     =       126.6841
 EPOLZ  =        38.7490
 Dipole convergence: rms =  0.646E-03 iters =   0.17
                                                    Density    =         0.0077
 ------------------------------------------------------------------------------
